LTspice 24.1.2 for Windows
Circuit: D:\electro-robot\LTSpice\Porte_logique_ou_Diode.net
Start Time: Fri Apr  4 08:31:42 2025
solver = Normal
Maximum thread count: 8
tnom = 27
temp = 27
method = trap
.OP point found by inspection.
Total elapsed time: 0.094 seconds.

Files loaded:
D:\electro-robot\LTSpice\Porte_logique_ou_Diode.net
C:\Users\bkhro\AppData\Local\LTspice\lib\cmp\standard.dio

